<?xml version="1.0" encoding="UTF-8"?>
<!-- generated on 2019-10-10 16:29:29.902206 by $Id$
  options: -n erlangen.net.xml -o dayuan.erlangen.trips.xml <doubleminus>route-file dayuan.erlangen.rou.xml -p 3 <doubleminus>begin 0 <doubleminus>end 1000
-->
<routes xmlns:xsi="http://www.w3.org/2001/XMLSchema-instance" xsi:noNamespaceSchemaLocation="http://sumo.dlr.de/xsd/routes_file.xsd">
    <trip id="0" depart="0.00" from="8403001" to="31261347"/>
    <trip id="1" depart="3.00" from="-10425131" to="-29900565#0"/>
    <trip id="2" depart="6.00" from="-32302591#0" to="-4006683"/>
    <trip id="3" depart="9.00" from="3998613#1" to="3998612#1"/>
    <trip id="4" depart="12.00" from="-4006683" to="-29900565#1"/>
    <trip id="5" depart="15.00" from="31241851#1" to="4006682"/>
    <trip id="6" depart="18.00" from="-4006676" to="29900564#5"/>
    <trip id="7" depart="21.00" from="-3998653" to="122161390"/>
    <trip id="8" depart="24.00" from="4900739#2" to="4006693#2"/>
    <trip id="9" depart="27.00" from="4047446#0" to="30357194"/>
    <trip id="10" depart="30.00" from="4006674#3" to="28631632"/>
    <trip id="11" depart="33.00" from="4400949" to="29900565#0"/>
    <trip id="12" depart="36.00" from="-4006693#2" to="-94344940#2"/>
    <trip id="13" depart="39.00" from="28768072" to="3998643#0"/>
    <trip id="14" depart="42.00" from="31353573#1" to="113939242#2"/>
    <trip id="15" depart="45.00" from="-4006693#4" to="10419402"/>
    <trip id="16" depart="48.00" from="3013106#1" to="29900564#2"/>
    <trip id="17" depart="51.00" from="-4006688#2" to="31241851#0"/>
    <trip id="18" depart="54.00" from="4900041#3" to="30350450#2"/>
    <trip id="19" depart="57.00" from="4006705#1" to="41973977"/>
    <trip id="20" depart="60.00" from="31241816#0" to="-10425130"/>
    <trip id="21" depart="63.00" from="4006724#1" to="31353573#0"/>
    <trip id="22" depart="66.00" from="3998615#2" to="4006693#0"/>
    <trip id="23" depart="69.00" from="-23605600#0" to="-29900561#1"/>
    <trip id="24" depart="72.00" from="-8403007" to="-31255203#1"/>
    <trip id="25" depart="75.00" from="25472129" to="113939242#2"/>
    <trip id="26" depart="78.00" from="25472134" to="31982182#1"/>
    <trip id="27" depart="81.00" from="-4006688#1" to="4006687"/>
    <trip id="28" depart="84.00" from="113939244#1" to="4006688#3"/>
    <trip id="29" depart="87.00" from="29900564#2" to="-32302591#4"/>
    <trip id="30" depart="90.00" from="-31777493#0" to="30405356"/>
    <trip id="31" depart="93.00" from="31241816#3" to="94344940#3"/>
    <trip id="32" depart="96.00" from="-3998645#1" to="4319349"/>
    <trip id="33" depart="99.00" from="-3998615#3" to="-29900564#1"/>
    <trip id="34" depart="102.00" from="-10425131" to="-4006674#2"/>
    <trip id="35" depart="105.00" from="-4006702#1" to="-4006674#1"/>
    <trip id="36" depart="108.00" from="-3998613#0" to="29900564#5"/>
    <trip id="37" depart="111.00" from="30350449" to="4006690"/>
    <trip id="38" depart="114.00" from="-28269598" to="30350450#1"/>
    <trip id="39" depart="117.00" from="-8402997" to="4047446#0"/>
    <trip id="40" depart="120.00" from="32270592#1" to="32270592#0"/>
    <trip id="41" depart="123.00" from="-94344940#3" to="3998645#0"/>
    <trip id="42" depart="126.00" from="54105725" to="-31720632#0"/>
    <trip id="43" depart="129.00" from="3998645#0" to="122161390"/>
    <trip id="44" depart="132.00" from="-4006726#2" to="-4047532"/>
    <trip id="45" depart="135.00" from="4047309" to="-31777493#1"/>
    <trip id="46" depart="138.00" from="33174302#0" to="-4006693#1"/>
    <trip id="47" depart="141.00" from="-31241855#0" to="-31353573#1"/>
    <trip id="48" depart="144.00" from="-4006672" to="30405356"/>
    <trip id="49" depart="147.00" from="8403001" to="-4006726#0"/>
    <trip id="50" depart="150.00" from="31241851#2" to="-41973977"/>
    <trip id="51" depart="153.00" from="4006690" to="-8402998#1"/>
    <trip id="52" depart="156.00" from="4047446#0" to="-23341293"/>
    <trip id="53" depart="159.00" from="30350450#2" to="4006672"/>
    <trip id="54" depart="162.00" from="-31777493#1" to="-4006693#2"/>
    <trip id="55" depart="165.00" from="-3998613#0" to="-4006674#3"/>
    <trip id="56" depart="168.00" from="-3998612#0" to="-31241816#3"/>
    <trip id="57" depart="171.00" from="31241835#1" to="-5445204#1"/>
    <trip id="58" depart="174.00" from="44069041#0" to="23339459"/>
    <trip id="59" depart="177.00" from="-29900565#1" to="28631632"/>
    <trip id="60" depart="180.00" from="-4006705#2" to="113939241"/>
    <trip id="61" depart="183.00" from="-31241855#0" to="28631632"/>
    <trip id="62" depart="186.00" from="31241848" to="31401017#1"/>
    <trip id="63" depart="189.00" from="-4006674#2" to="-32270593"/>
    <trip id="64" depart="192.00" from="4006705#0" to="25472079"/>
    <trip id="65" depart="195.00" from="33174302#0" to="25398494#0"/>
    <trip id="66" depart="198.00" from="-4006676" to="10573414#1"/>
    <trip id="67" depart="201.00" from="28613734" to="-8402998#2"/>
    <trip id="68" depart="204.00" from="3013106#2" to="-4006687"/>
    <trip id="69" depart="207.00" from="4006687" to="-4006702#0"/>
    <trip id="70" depart="210.00" from="-31241834#1" to="113939241"/>
    <trip id="71" depart="213.00" from="3013109" to="-5445204#2"/>
    <trip id="72" depart="216.00" from="31777493#1" to="31241853#2"/>
    <trip id="73" depart="219.00" from="-4006683" to="33174302#0"/>
    <trip id="74" depart="222.00" from="-32270592#1" to="-4006672"/>
    <trip id="75" depart="225.00" from="31777493#1" to="5931612"/>
    <trip id="76" depart="228.00" from="-8402998#0" to="-5445204#1"/>
    <trip id="77" depart="231.00" from="4047532" to="-5445204#2"/>
    <trip id="78" depart="234.00" from="10425130" to="33174302#0"/>
    <trip id="79" depart="237.00" from="8403001" to="--5558"/>
    <trip id="80" depart="240.00" from="32270593" to="31401017#0"/>
    <trip id="81" depart="243.00" from="29900561#1" to="10573414#1"/>
    <trip id="82" depart="246.00" from="5445204#2" to="23339459"/>
    <trip id="83" depart="249.00" from="-31241838#0" to="4006674#3"/>
    <trip id="84" depart="252.00" from="31353573#0" to="-4006688#0"/>
    <trip id="85" depart="255.00" from="5931612" to="-4006702#2"/>
    <trip id="86" depart="258.00" from="-113939241" to="37591481"/>
    <trip id="87" depart="261.00" from="31401018" to="30405352"/>
    <trip id="88" depart="264.00" from="28269598" to="-4099309"/>
    <trip id="89" depart="267.00" from="23605600#1" to="-5445204#2"/>
    <trip id="90" depart="270.00" from="-23570844#2" to="4006693#4"/>
    <trip id="91" depart="273.00" from="113939242#2" to="4872369"/>
    <trip id="92" depart="276.00" from="-31777493#1" to="-28613737"/>
    <trip id="93" depart="279.00" from="4900739#0" to="-4900741"/>
    <trip id="94" depart="282.00" from="3998645#2" to="-3013109"/>
    <trip id="95" depart="285.00" from="4047532" to="4900739#2"/>
    <trip id="96" depart="288.00" from="-113939241" to="-4006724#0"/>
    <trip id="97" depart="291.00" from="-4006702#0" to="32302591#1"/>
    <trip id="98" depart="294.00" from="-3998645#2" to="-31353573#1"/>
    <trip id="99" depart="297.00" from="-4006740" to="3998643#0"/>
    <trip id="100" depart="300.00" from="113939242#2" to="4006688#0"/>
    <trip id="101" depart="303.00" from="-3998645#0" to="-4006693#4"/>
    <trip id="102" depart="306.00" from="-4006703#1" to="-29900564#5"/>
    <trip id="103" depart="309.00" from="29900561#1" to="3013106#1"/>
    <trip id="104" depart="312.00" from="31241816#0" to="29900564#2"/>
    <trip id="105" depart="315.00" from="-4006687" to="-4006691"/>
    <trip id="106" depart="318.00" from="4006705#1" to="3998613#0"/>
    <trip id="107" depart="321.00" from="31401017#1" to="-4006682"/>
    <trip id="108" depart="324.00" from="-4006726#2" to="44069041#1"/>
    <trip id="109" depart="327.00" from="-4006682" to="28269598"/>
    <trip id="110" depart="330.00" from="31401017#0" to="-29900565#0"/>
    <trip id="111" depart="333.00" from="-23605595" to="-32302591#2"/>
    <trip id="112" depart="336.00" from="30350449" to="31401017#2"/>
    <trip id="113" depart="339.00" from="3998645#0" to="113939244#0"/>
    <trip id="114" depart="342.00" from="4006687" to="31241838#0"/>
    <trip id="115" depart="345.00" from="-23570844#2" to="-31353573#0"/>
    <trip id="116" depart="348.00" from="-4006693#3" to="44069041#1"/>
    <trip id="117" depart="351.00" from="29900564#1" to="31401017#0"/>
    <trip id="118" depart="354.00" from="-10425131" to="113939244#1"/>
    <trip id="119" depart="357.00" from="31241848" to="-31241816#1"/>
    <trip id="120" depart="360.00" from="4006693#3" to="31241855#1"/>
    <trip id="121" depart="363.00" from="30350450#1" to="-3998615#3"/>
    <trip id="122" depart="366.00" from="-4099270#1" to="-23570844#2"/>
    <trip id="123" depart="369.00" from="-29900564#0" to="4900741"/>
    <trip id="124" depart="372.00" from="-4006693#4" to="31353573#0"/>
    <trip id="125" depart="375.00" from="4006705#0" to="25472257"/>
    <trip id="126" depart="378.00" from="-31241851#2" to="30405356"/>
    <trip id="127" depart="381.00" from="-4006684" to="-4006684"/>
    <trip id="128" depart="384.00" from="-4006668" to="-29900561#1"/>
    <trip id="129" depart="387.00" from="32302591#4" to="31241855#0"/>
    <trip id="130" depart="390.00" from="-3998612#0" to="-32302591#5"/>
    <trip id="131" depart="393.00" from="31401018" to="-3998615#3"/>
    <trip id="132" depart="396.00" from="3013109" to="-32270595"/>
    <trip id="133" depart="399.00" from="-4006672" to="-31241851#2"/>
    <trip id="134" depart="402.00" from="30350450#1" to="44069041#1"/>
    <trip id="135" depart="405.00" from="30405358#1" to="-32270592#0"/>
    <trip id="136" depart="408.00" from="25472134" to="29900565#0"/>
    <trip id="137" depart="411.00" from="32270592#0" to="31720633"/>
    <trip id="138" depart="414.00" from="31401017#0" to="4006688#4"/>
    <trip id="139" depart="417.00" from="4900041#2" to="-4006674#3"/>
    <trip id="140" depart="420.00" from="30350449" to="94344940#0"/>
    <trip id="141" depart="423.00" from="4006672" to="-8402997"/>
    <trip id="142" depart="426.00" from="-29900565#0" to="29900564#3"/>
    <trip id="143" depart="429.00" from="3013106#0" to="-31401017#2"/>
    <trip id="144" depart="432.00" from="3998613#0" to="32302591#1"/>
    <trip id="145" depart="435.00" from="10573414#1" to="-3998645#2"/>
    <trip id="146" depart="438.00" from="8403007" to="-4006674#1"/>
    <trip id="147" depart="441.00" from="25398494#0" to="4006688#0"/>
    <trip id="148" depart="444.00" from="113939244#0" to="-4006682"/>
    <trip id="149" depart="447.00" from="113939244#2" to="-35842306#1"/>
    <trip id="150" depart="450.00" from="4006702#0" to="-4006693#0"/>
    <trip id="151" depart="453.00" from="-4900043" to="4006688#4"/>
    <trip id="152" depart="456.00" from="-31401018" to="31241816#0"/>
    <trip id="153" depart="459.00" from="-10425131" to="-4006703#0"/>
    <trip id="154" depart="462.00" from="32282774" to="4686970#1"/>
    <trip id="155" depart="465.00" from="-31401017#0" to="67076129"/>
    <trip id="156" depart="468.00" from="-29900564#0" to="8402998#0"/>
    <trip id="157" depart="471.00" from="29900561#1" to="4006683"/>
    <trip id="158" depart="474.00" from="4006724#2" to="4006684"/>
    <trip id="159" depart="477.00" from="35842306#1" to="113939241"/>
    <trip id="160" depart="480.00" from="4797872" to="31241834#1"/>
    <trip id="161" depart="483.00" from="-8402998#1" to="-32270595"/>
    <trip id="162" depart="486.00" from="35842306#1" to="94344940#2"/>
    <trip id="163" depart="489.00" from="32302591#4" to="4797871"/>
    <trip id="164" depart="492.00" from="-4006693#2" to="-25210699"/>
    <trip id="165" depart="495.00" from="32270593" to="31241848"/>
    <trip id="166" depart="498.00" from="8403001" to="25472299"/>
    <trip id="167" depart="501.00" from="25210699" to="4400949"/>
    <trip id="168" depart="504.00" from="35842306#1" to="-31401017#0"/>
    <trip id="169" depart="507.00" from="-32270593" to="-31255203#0"/>
    <trip id="170" depart="510.00" from="-32270593" to="25472299"/>
    <trip id="171" depart="513.00" from="4319352#0" to="-4900043"/>
    <trip id="172" depart="516.00" from="4006668" to="4006689"/>
    <trip id="173" depart="519.00" from="-31401017#0" to="-31241838#0"/>
    <trip id="174" depart="522.00" from="4686970#0" to="-23805514#1"/>
    <trip id="175" depart="525.00" from="-31241855#1" to="25472299"/>
    <trip id="176" depart="528.00" from="-4006705#1" to="-3998643#0"/>
    <trip id="177" depart="531.00" from="-31255203#1" to="-5445204#1"/>
    <trip id="178" depart="534.00" from="-10425128#0" to="4900739#2"/>
    <trip id="179" depart="537.00" from="-4006683" to="-4006688#1"/>
    <trip id="180" depart="540.00" from="8403007" to="31401017#1"/>
    <trip id="181" depart="543.00" from="-4006690" to="-35842306#0"/>
    <trip id="182" depart="546.00" from="4047446#0" to="-4006674#1"/>
    <trip id="183" depart="549.00" from="-5558" to="23341293"/>
    <trip id="184" depart="552.00" from="-4099270#1" to="-4006672"/>
    <trip id="185" depart="555.00" from="32270595" to="-23605600#2"/>
    <trip id="186" depart="558.00" from="-26188722" to="-3998643#2"/>
    <trip id="187" depart="561.00" from="-94344940#0" to="-23605600#2"/>
    <trip id="188" depart="564.00" from="31241851#0" to="-4900739#2"/>
    <trip id="189" depart="567.00" from="31241838#1" to="--5558"/>
    <trip id="190" depart="570.00" from="-4006688#1" to="-10425130"/>
    <trip id="191" depart="573.00" from="31720632#0" to="8403007"/>
    <trip id="192" depart="576.00" from="4006725#1" to="25472129"/>
    <trip id="193" depart="579.00" from="4900739#2" to="-4006682"/>
    <trip id="194" depart="582.00" from="-3998612#1" to="-25398494#0"/>
    <trip id="195" depart="585.00" from="-3998653" to="30751813"/>
    <trip id="196" depart="588.00" from="-5558" to="10573414#1"/>
    <trip id="197" depart="591.00" from="29900565#2" to="30405356"/>
    <trip id="198" depart="594.00" from="31241853#0" to="4319349"/>
    <trip id="199" depart="597.00" from="-3998612#2" to="-35842306#0"/>
    <trip id="200" depart="600.00" from="-4900043" to="-31241855#0"/>
    <trip id="201" depart="603.00" from="-3998645#0" to="-28613727#0"/>
    <trip id="202" depart="606.00" from="31241835#0" to="32270593"/>
    <trip id="203" depart="609.00" from="10573414#1" to="37591481"/>
    <trip id="204" depart="612.00" from="125685391" to="4797872"/>
    <trip id="205" depart="615.00" from="30350450#1" to="94344940#2"/>
    <trip id="206" depart="618.00" from="-4099309" to="4006684"/>
    <trip id="207" depart="621.00" from="3998615#3" to="-5445204#2"/>
    <trip id="208" depart="624.00" from="-4690348" to="4319352#0"/>
    <trip id="209" depart="627.00" from="-29900564#3" to="-94344940#2"/>
    <trip id="210" depart="630.00" from="30405352" to="-4006703#1"/>
    <trip id="211" depart="633.00" from="-3998612#1" to="31261347"/>
    <trip id="212" depart="636.00" from="4006689" to="4006688#3"/>
    <trip id="213" depart="639.00" from="-29900564#3" to="4006674#3"/>
    <trip id="214" depart="642.00" from="-4047378" to="-126606716"/>
    <trip id="215" depart="645.00" from="28613727#0" to="3998613#0"/>
    <trip id="216" depart="648.00" from="-31241816#0" to="8402998#1"/>
    <trip id="217" depart="651.00" from="-28269601" to="-4006726#0"/>
    <trip id="218" depart="654.00" from="-41973977" to="-8402998#2"/>
    <trip id="219" depart="657.00" from="32270593" to="-4006724#0"/>
    <trip id="220" depart="660.00" from="4006726#0" to="-54105725"/>
    <trip id="221" depart="663.00" from="31353573#0" to="25398494#0"/>
    <trip id="222" depart="666.00" from="4006726#2" to="32320329"/>
    <trip id="223" depart="669.00" from="37591481" to="-4006688#2"/>
    <trip id="224" depart="672.00" from="-4006693#1" to="4006702#1"/>
    <trip id="225" depart="675.00" from="-31241816#3" to="-30357194"/>
    <trip id="226" depart="678.00" from="-32302591#1" to="3998645#2"/>
    <trip id="227" depart="681.00" from="-31241816#1" to="4047446#1"/>
    <trip id="228" depart="684.00" from="32302591#4" to="10712011"/>
    <trip id="229" depart="687.00" from="32270592#0" to="25472134"/>
    <trip id="230" depart="690.00" from="4400949" to="-4006726#0"/>
    <trip id="231" depart="693.00" from="-10419402" to="32270592#0"/>
    <trip id="232" depart="696.00" from="4006694" to="3998613#1"/>
    <trip id="233" depart="699.00" from="-41973977" to="-4006674#0"/>
    <trip id="234" depart="702.00" from="-94344940#2" to="-31241834#1"/>
    <trip id="235" depart="705.00" from="5445204#3" to="-4047378"/>
    <trip id="236" depart="708.00" from="-25398494#0" to="29900565#2"/>
    <trip id="237" depart="711.00" from="31401017#2" to="-32270595"/>
    <trip id="238" depart="714.00" from="-4006724#1" to="-10425128#1"/>
    <trip id="239" depart="717.00" from="-31241834#0" to="29900564#3"/>
    <trip id="240" depart="720.00" from="4900041#0" to="-31255203#0"/>
    <trip id="241" depart="723.00" from="113939242#2" to="23570844#2"/>
    <trip id="242" depart="726.00" from="-3013106#2" to="-8402998#3"/>
    <trip id="243" depart="729.00" from="31241838#0" to="-15259223"/>
    <trip id="244" depart="732.00" from="-3998615#1" to="3998645#2"/>
    <trip id="245" depart="735.00" from="-4006693#3" to="-4006703#1"/>
    <trip id="246" depart="738.00" from="4006705#1" to="4319352#0"/>
    <trip id="247" depart="741.00" from="31241816#0" to="29900565#3"/>
    <trip id="248" depart="744.00" from="4319351" to="-32270592#1"/>
    <trip id="249" depart="747.00" from="4797872" to="-32270592#0"/>
    <trip id="250" depart="750.00" from="4006703#1" to="23605595"/>
    <trip id="251" depart="753.00" from="4900741" to="32270592#0"/>
    <trip id="252" depart="756.00" from="3998645#1" to="-5445204#2"/>
    <trip id="253" depart="759.00" from="4047241" to="28269598"/>
    <trip id="254" depart="762.00" from="-3998613#2" to="4900741"/>
    <trip id="255" depart="765.00" from="-10712011" to="-28269601"/>
    <trip id="256" depart="768.00" from="-35842306#1" to="4006693#3"/>
    <trip id="257" depart="771.00" from="-3013107" to="31777493#1"/>
    <trip id="258" depart="774.00" from="-4047378" to="10712011"/>
    <trip id="259" depart="777.00" from="8402998#1" to="31777493#0"/>
    <trip id="260" depart="780.00" from="-31241835#1" to="-4006724#1"/>
    <trip id="261" depart="783.00" from="8402998#3" to="3998615#2"/>
    <trip id="262" depart="786.00" from="31241853#2" to="4047241"/>
    <trip id="263" depart="789.00" from="32270592#1" to="4006672"/>
    <trip id="264" depart="792.00" from="3013109" to="-31241848"/>
    <trip id="265" depart="795.00" from="-29900567" to="31777493#1"/>
    <trip id="266" depart="798.00" from="32302591#1" to="-8402998#0"/>
    <trip id="267" depart="801.00" from="-4006693#3" to="10425131"/>
    <trip id="268" depart="804.00" from="-3998613#1" to="-28613727#0"/>
    <trip id="269" depart="807.00" from="-9643180" to="-4392769"/>
    <trip id="270" depart="810.00" from="4900739#2" to="-31353573#0"/>
    <trip id="271" depart="813.00" from="3998613#1" to="31241838#0"/>
    <trip id="272" depart="816.00" from="4900739#2" to="4006668"/>
    <trip id="273" depart="819.00" from="-31270441" to="4872369"/>
    <trip id="274" depart="822.00" from="31241816#1" to="-25398494#0"/>
    <trip id="275" depart="825.00" from="-32320329" to="31720632#1"/>
    <trip id="276" depart="828.00" from="-25398494#0" to="39539626"/>
    <trip id="277" depart="831.00" from="29900561#1" to="-29900565#0"/>
    <trip id="278" depart="834.00" from="32302591#3" to="31982182#0"/>
    <trip id="279" depart="837.00" from="35842306#0" to="35842306#1"/>
    <trip id="280" depart="840.00" from="4006688#4" to="-23350930"/>
    <trip id="281" depart="843.00" from="28269601" to="3998615#3"/>
    <trip id="282" depart="846.00" from="-126606716" to="32302591#0"/>
    <trip id="283" depart="849.00" from="4006693#3" to="-32282774"/>
    <trip id="284" depart="852.00" from="32270592#0" to="-29900564#4"/>
    <trip id="285" depart="855.00" from="30405358#1" to="-4006672"/>
    <trip id="286" depart="858.00" from="29900565#1" to="-3013106#2"/>
    <trip id="287" depart="861.00" from="3998643#2" to="-8402997"/>
    <trip id="288" depart="864.00" from="31241834#1" to="113939242#1"/>
    <trip id="289" depart="867.00" from="4400949" to="23605600#2"/>
    <trip id="290" depart="870.00" from="28613727#0" to="4006676"/>
    <trip id="291" depart="873.00" from="4900739#0" to="5445204#3"/>
    <trip id="292" depart="876.00" from="-32302591#0" to="-3998613#2"/>
    <trip id="293" depart="879.00" from="28613734" to="4400949"/>
    <trip id="294" depart="882.00" from="30405358#1" to="28613737"/>
    <trip id="295" depart="885.00" from="4006683" to="31720633"/>
    <trip id="296" depart="888.00" from="-23805514#1" to="10425130"/>
    <trip id="297" depart="891.00" from="-32270593" to="10425128#1"/>
    <trip id="298" depart="894.00" from="41973977" to="10712013"/>
    <trip id="299" depart="897.00" from="-4006668" to="23605600#1"/>
    <trip id="300" depart="900.00" from="113939241" to="-3998613#1"/>
    <trip id="301" depart="903.00" from="32302591#4" to="94344940#0"/>
    <trip id="302" depart="906.00" from="-28269598" to="8402998#0"/>
    <trip id="303" depart="909.00" from="-23605600#2" to="-23360299"/>
    <trip id="304" depart="912.00" from="-3998615#3" to="29900561#0"/>
    <trip id="305" depart="915.00" from="-28269601" to="31241855#1"/>
    <trip id="306" depart="918.00" from="-4006726#2" to="4006688#2"/>
    <trip id="307" depart="921.00" from="-32302591#0" to="4900041#2"/>
    <trip id="308" depart="924.00" from="-4006724#1" to="3998613#0"/>
    <trip id="309" depart="927.00" from="-4099270#1" to="4900041#3"/>
    <trip id="310" depart="930.00" from="23605595" to="3998615#3"/>
    <trip id="311" depart="933.00" from="-28269601" to="30751813"/>
    <trip id="312" depart="936.00" from="28768072" to="-4872369"/>
    <trip id="313" depart="939.00" from="31270441" to="31720633"/>
    <trip id="314" depart="942.00" from="-31241816#0" to="-4006702#2"/>
    <trip id="315" depart="945.00" from="28269601" to="32270592#0"/>
    <trip id="316" depart="948.00" from="-29900567" to="-4900739#1"/>
    <trip id="317" depart="951.00" from="-4006705#2" to="-4006703#0"/>
    <trip id="318" depart="954.00" from="31241848" to="29900565#1"/>
    <trip id="319" depart="957.00" from="4900041#0" to="3013106#1"/>
    <trip id="320" depart="960.00" from="23350929" to="3998645#0"/>
    <trip id="321" depart="963.00" from="-33174302#0" to="67076129"/>
    <trip id="322" depart="966.00" from="29900567" to="-4900739#2"/>
    <trip id="323" depart="969.00" from="31401017#2" to="25398494#0"/>
    <trip id="324" depart="972.00" from="-33174302#1" to="31241853#1"/>
    <trip id="325" depart="975.00" from="4006688#2" to="-4006687"/>
    <trip id="326" depart="978.00" from="-23341293" to="-29900565#2"/>
    <trip id="327" depart="981.00" from="10419402" to="-4006684"/>
    <trip id="328" depart="984.00" from="113939244#1" to="8402997"/>
    <trip id="329" depart="987.00" from="29900561#1" to="4900741"/>
    <trip id="330" depart="990.00" from="4006703#0" to="-31241838#1"/>
    <trip id="331" depart="993.00" from="31270441" to="8402998#1"/>
    <trip id="332" depart="996.00" from="-4006703#1" to="30350450#0"/>
    <trip id="333" depart="999.00" from="25472129" to="9643180"/>
</routes>
